4    
Dihedral (-165,) Energy -151.169667291
H       -0.9433493379   -0.3300979077   -0.8497249440
O       -0.7286036958   -0.1551514909    0.0794804923
O        0.7308886616   -0.1516519669   -0.0637452354
H        0.9474978649   -0.2274305345    0.8783176870
4    
Dihedral (-150,) Energy -151.169993363
H       -0.9343950721   -0.3908183128   -0.8321689628
O       -0.7285356907   -0.0940691103    0.0676774258
O        0.7299063783   -0.0896903168   -0.0582521341
H        0.9394579392   -0.2897542345    0.8670717421
4    
Dihedral (-135,) Energy -151.170376686
H       -0.9208240348   -0.4488313258   -0.8059991802
O       -0.7286796179   -0.0355109749    0.0501926659
O        0.7291690812   -0.0296550702   -0.0468491274
H        0.9267681207   -0.3503344799    0.8469836848
4    
Dihedral (-120,) Energy -151.170593720
H       -0.9031576586   -0.5030880166   -0.7717411797
O       -0.7280107663    0.0194507128    0.0270323640
O        0.7276691906    0.0273718853   -0.0294317454
H        0.9099327871   -0.4080664814    0.8184684611
4    
Dihedral (-105,) Energy -151.170380178
H       -0.8833034878   -0.5526527475   -0.7307878308
O       -0.7272963569    0.0697748339   -0.0020997005
O        0.7261858974    0.0803952959   -0.0055996959
H        0.8908475454   -0.4618492816    0.7828152272
4    
Dihedral (-90,) Energy -151.169497434
H       -0.8625316214   -0.5967331599   -0.6843431398
O       -0.7257562228    0.1146129918   -0.0369983045
O        0.7239550267    0.1285405054    0.0245305999
H        0.8707662719   -0.5107522740    0.7411389395
4    
Dihedral (-75,) Energy -151.167826047
H       -0.8433097116   -0.6345793409   -0.6341796560
O       -0.7230774170    0.1531000499   -0.0778372734
O        0.7206750059    0.1709590525    0.0612205944
H        0.8521456374   -0.5538118073    0.6951244805
4    
Dihedral (-60,) Energy -151.165449561
H       -0.8285424397   -0.6655598075   -0.5823962743
O       -0.7182658780    0.1844888929   -0.1244937131
O        0.7153633248    0.2068810031    0.1044251593
H        0.8378784928   -0.5901421300    0.6467929281
4    
Dihedral (-45,) Energy -151.162691826
H       -0.8210691024   -0.6892163046   -0.5312225561
O       -0.7100580345    0.2082358279   -0.1761761584
O        0.7067650472    0.2356656715    0.1534137137
H        0.8307955207   -0.6190171791    0.5983130579
4    
Dihedral (-30,) Energy -151.160077564
H       -0.8224676731   -0.7053732427   -0.4824201978
O       -0.6972680779    0.2241617165   -0.2311338813
O        0.6936987080    0.2569383432    0.2064637380
H        0.8324705119   -0.6400588177    0.5514183568
4    
Dihedral (-15,) Energy -151.158197428
H       -0.8324575745   -0.7141259691   -0.4368288981
O       -0.6789772116    0.2324504855   -0.2869758182
O        0.6752445469    0.2706236463    0.2611787153
H        0.8426236656   -0.6532801203    0.5069540009
4    
Dihedral (0,) Energy -151.157513027
H       -0.8496641316   -0.7157215389   -0.3945730370
O       -0.6549548871    0.2334688523   -0.3414751871
O        0.6511683255    0.2768551559    0.3153063000
H        0.8598840931   -0.6589344265    0.4650699241
4    
Dihedral (15,) Energy -151.158197430
H       -0.8732561524   -0.7102897736   -0.3558674503
O       -0.6255808065    0.2274254645   -0.3929456928
O        0.6218478883    0.2756736944    0.3671472839
H        0.8834224973   -0.6571412275    0.4259938592
4    
Dihedral (30,) Energy -151.160077561
H       -0.9035640923   -0.6977424580   -0.3215267237
O       -0.5919694523    0.2142481692   -0.4400503988
O        0.5883997330    0.2668871127    0.4153783559
H        0.9135671692   -0.6477245395    0.3905267665
4    
Dihedral (45,) Energy -151.162691820
H       -0.9413001190   -0.6778957344   -0.2927543732
O       -0.5560621949    0.1937317130   -0.4816172190
O        0.5527688001    0.2502001992    0.4588530617
H        0.9510267296   -0.6303677935    0.3598466580
4    
Dihedral (60,) Energy -151.165449564
H       -0.9859980850   -0.6507178151   -0.2703200897
O       -0.5203057543    0.1658291545   -0.5168863848
O        0.5174030596    0.2255248110    0.4968185940
H        0.9953339797   -0.6049677939    0.3347161064
4    
Dihedral (75,) Energy -151.167826042
H       -0.8489335420    0.1216461600   -0.6729543382
O       -0.7174589951   -0.6031244057   -0.0390508678
O        0.7262945034   -0.5852667716    0.0999962644
H        0.8465318024    0.2024129172    0.6563371874
4    
Dihedral (90,) Energy -151.169497435
H       -0.8675545764    0.0785866402   -0.7189686215
O       -0.7207387324   -0.5607057147   -0.0023608523
O        0.7289731873   -0.5467797573    0.0591572161
H        0.8657539215    0.1645668359    0.7065004884
4    
Dihedral (105,) Energy -151.170380176
H       -0.8876371833    0.0296832454   -0.7606448270
O       -0.7229671465   -0.5125602435    0.0277684217
O        0.7305106976   -0.5019410747    0.0242594208
H        0.8865273512    0.1204860835    0.7529452325
4    
Dihedral (120,) Energy -151.170593823
H       -0.9068658759   -0.0241165496   -0.7963521807
O       -0.7246563342   -0.4595291775    0.0515191709
O        0.7314316261   -0.4515982170   -0.0047925097
H        0.9065243695    0.0709118810    0.7939538195
4    
Dihedral (135,) Energy -151.170376551
H       -0.9236408384   -0.0818083941   -0.8249152218
O       -0.7262228530   -0.4025386052    0.0690650223
O        0.7321666782   -0.3966843847   -0.0280770958
H        0.9241306679    0.0166993251    0.8282556340
4    
Dihedral (150,) Energy -151.169993448
H       -0.9364086981   -0.1423930195   -0.8450785941
O       -0.7271345928   -0.3425041399    0.0804826547
O        0.7321973322   -0.3381257682   -0.0455766210
H        0.9377797010   -0.0413090723    0.8545007028
4    
Dihedral (165,) Energy -151.169667228
H       -0.9443972770   -0.2047378099   -0.8562270079
O       -0.7278617400   -0.2805187877    0.0858849853
O        0.7320097550   -0.2770141663   -0.0572916735
H        0.9466829044   -0.1020612360    0.8719617961
4    
Dihedral (180,) Energy -151.169541813
H       -0.9462303485   -0.2676712863   -0.8575543989
O       -0.7279607157   -0.2176722992    0.0857967913
O        0.7311771730   -0.2144936685   -0.0636326256
H        0.9494474488   -0.1644946884    0.8797183332
