%Mem=6GB
%NProcShared=2
%Chk=ligand
# MP2/cc-pvdz Opt=ModRedundant

hooh
	      
0 1
H           -0.900956416662    -0.508511199761    -0.767347451313
O           -0.728052921632     0.024961188945     0.023986108954
O            0.727620291227     0.033161864577    -0.026966996721
H            0.907822575145    -0.413943838488     0.814656303345



	      

	      
