4    
Dihedral (-165,) Energy -151.169667258
H       -0.9534430087    0.8565521817    0.1115761365
O        0.0000000000    0.7331492589   -0.0139470171
O       -0.0000000000   -0.7331492589   -0.0139470171
H        0.9534430087   -0.8565521817    0.1115761365
4    
Dihedral (-150,) Energy -151.169993405
H        0.9283203518   -0.8604827550    0.2211046125
O        0.0000000000   -0.7319861649   -0.0276380766
O        0.0000000000    0.7319861649   -0.0276380766
H       -0.9283203518    0.8604827550    0.2211046125
4    
Dihedral (-135,) Energy -151.170376443
H       -1.0076677071   -0.7232184693    0.3266043915
O       -0.7191516753    0.1266707850   -0.0408260326
O        0.7191516541   -0.1266708638   -0.0408249686
H        1.0076678765    0.7232190991    0.3266036184
4    
Dihedral (-120,) Energy -151.170593707
H       -0.9979493345   -0.6783188804    0.4263074048
O       -0.7188115627    0.1177163661   -0.0532885509
O        0.7188118855   -0.1177165746   -0.0532882117
H        0.9979467468    0.6783205473    0.4263066962
4    
Dihedral (-105,) Energy -151.170380174
H       -0.9875765710   -0.6216309107    0.5183302654
O       -0.7189003586    0.1067442901   -0.0647919128
O        0.7189004538   -0.1067445028   -0.0647905750
H        0.9875757825    0.6216326146    0.5183296393
4    
Dihedral (-90,) Energy -151.169497438
H       -0.6762198892    0.8965115382    0.6010843436
O        0.0000000000    0.7255396460   -0.0751355430
O       -0.0000000000   -0.7255396460   -0.0751355430
H        0.6762198892   -0.8965115382    0.6010843436
4    
Dihedral (-75,) Energy -151.167825779
H       -0.5810917402    0.9079361627    0.6731497736
O        0.0000000000    0.7255591039   -0.0841437220
O       -0.0000000000   -0.7255591039   -0.0841437220
H        0.5810917402   -0.9079361627    0.6731497736
4    
Dihedral (-60,) Energy -151.165449443
H       -0.4761397256    0.9200604704    0.7330650616
O       -0.0000000000    0.7261784791   -0.0916331328
O       -0.0000000000   -0.7261784791   -0.0916331328
H        0.4761397256   -0.9200604704    0.7330650616
4    
Dihedral (-45,) Energy -151.162691820
H       -0.3633802790    0.9328412803    0.7798023076
O        0.0000000000    0.7275378925   -0.0974752887
O       -0.0000000000   -0.7275378925   -0.0974752887
H        0.3633802790   -0.9328412803    0.7798023076
4    
Dihedral (-30,) Energy -151.160077556
H       -0.2450325750    0.9449878451    0.8128657946
O       -0.0000000000    0.7292401861   -0.1016082241
O        0.0000000000   -0.7292401861   -0.1016082241
H        0.2450325750   -0.9449878451    0.8128657946
4    
Dihedral (-15,) Energy -151.158197410
H       -0.1232868880    0.9539464201    0.8324061210
O        0.0000000000    0.7306615873   -0.1040507654
O       -0.0000000000   -0.7306615873   -0.1040507654
H        0.1232868880   -0.9539464201    0.8324061210
4    
Dihedral (0,) Energy -151.157513020
H        0.0000000000    0.9572379063    0.8388665413
O        0.0000000000    0.7312571707   -0.1048583175
O       -0.0000000000   -0.7312571707   -0.1048583175
H       -0.0000000000   -0.9572379063    0.8388665413
4    
Dihedral (15,) Energy -151.158197431
H        0.1232955200    0.9538387220    0.8324644045
O        0.0000000000    0.7307877060   -0.1040580500
O       -0.0000000000   -0.7307877060   -0.1040580500
H       -0.1232955200   -0.9538387220    0.8324644045
4    
Dihedral (30,) Energy -151.160077544
H        0.2450560684    0.9448185031    0.8129437317
O       -0.0000000000    0.7294143806   -0.1016179667
O        0.0000000000   -0.7294143806   -0.1016179667
H       -0.2450560684   -0.9448185031    0.8129437317
4    
Dihedral (45,) Energy -151.162691789
H        0.3633967866    0.9327485579    0.7798377360
O       -0.0000000000    0.7276175707   -0.0974797169
O       -0.0000000000   -0.7276175707   -0.0974797169
H       -0.3633967866   -0.9327485579    0.7798377360
4    
Dihedral (60,) Energy -151.165449557
H        0.4761090259    0.9201636440    0.7330177955
O        0.0000000000    0.7259998395   -0.0916272246
O       -0.0000000000   -0.7259998395   -0.0916272246
H       -0.4761090259   -0.9201636440    0.7330177955
4    
Dihedral (75,) Energy -151.167825778
H        0.5810918249    0.9079361468    0.6731498742
O       -0.0000000000    0.7255595695   -0.0841437347
O       -0.0000000000   -0.7255595695   -0.0841437347
H       -0.5810918249   -0.9079361468    0.6731498742
4    
Dihedral (90,) Energy -151.169497437
H        0.6762204078    0.8965099189    0.6010848093
O        0.0000000000    0.7255416939   -0.0751356006
O       -0.0000000000   -0.7255416939   -0.0751356006
H       -0.6762204078   -0.8965099189    0.6010848093
4    
Dihedral (105,) Energy -151.170380183
H        0.7599144601    0.8856311088    0.5183136645
O        0.0000000000    0.7267399571   -0.0647892081
O       -0.0000000000   -0.7267399571   -0.0647892081
H       -0.7599144601   -0.8856311088    0.5183136645
4    
Dihedral (120,) Energy -151.170593544
H        0.8308301101    0.8756695105    0.4263822108
O        0.0000000000    0.7289644214   -0.0532977761
O       -0.0000000000   -0.7289644214   -0.0532977761
H       -0.8308301101   -0.8756695105    0.4263822108
4    
Dihedral (135,) Energy -151.170376549
H        0.8873458857    0.8671047225    0.3267117345
O       -0.0000000000    0.7308172500   -0.0408389668
O       -0.0000000000   -0.7308172500   -0.0408389668
H       -0.8873458857   -0.8671047225    0.3267117345
4    
Dihedral (150,) Energy -151.169993462
H        0.9285222646    0.8606338403    0.2211527030
O        0.0000000000    0.7323647328   -0.0276440878
O       -0.0000000000   -0.7323647328   -0.0276440878
H       -0.9285222646   -0.8606338403    0.2211527030
4    
Dihedral (165,) Energy -151.169667285
H        0.9535334715    0.8566010142    0.1115867227
O        0.0000000000    0.7333263745   -0.0139483403
O       -0.0000000000   -0.7333263745   -0.0139483403
H       -0.9535334715   -0.8566010142    0.1115867227
4    
Dihedral (180,) Energy -151.169541828
H       -0.9619409510    0.8546340421    0.0000000000
O        0.0000000000    0.7333565958    0.0000000000
O       -0.0000000000   -0.7333565958    0.0000000000
H        0.9619409510   -0.8546340421    0.0000000000
